java/SFINA/configuration_files/experiment-01/output/time_3/iteration_1/flow/links.txt
id,current,real_power_from,reactive_power_from,real_power_to,reactive_power_to,resistance,reactance,susceptance,rateA,rateB,rateC,ratio,angle,angmin,angmax
1,0.0,10.885400650170943,-5.084686242466496,-10.859132265616608,2.1634913961293987,0.02,0.06,0.03,130.0,130.0,130.0,0.0,0.0,-360.0,360.0
2,0.0,15.05485048424202,4.0971794737043155,-14.928535603397004,-5.583733944889026,0.05,0.19,0.02,130.0,130.0,130.0,0.0,0.0,-360.0,360.0
3,0.0,16.03296352727877,5.221280333985192,-15.855507378202121,-6.679057223040498,0.06,0.17,0.02,65.0,65.0,65.0,0.0,0.0,-360.0,360.0
4,0.0,12.52853560339694,4.3837339448889745,-12.510307768102994,-4.310822603713185,0.01,0.04,0.0,130.0,130.0,130.0,0.0,0.0,-360.0,360.0
5,0.0,13.800944227548792,4.508759335948984,-13.690537982052135,-6.032236825477636,0.05,0.2,0.02,130.0,130.0,130.0,0.0,0.0,-360.0,360.0
6,0.0,20.29522451078903,7.427502452496252,-20.005473149470923,-8.505293598467913,0.06,0.18,0.02,65.0,65.0,65.0,0.0,0.0,-360.0,360.0
7,0.0,22.73895246517913,11.36331471641292,-22.67168143404554,-11.094230591878585,0.01,0.04,0.0,90.0,90.0,90.0,0.0,0.0,-360.0,360.0
8,0.0,13.690537982052058,6.215606295065408,-13.570190064912769,-6.877194095398309,0.05,0.12,0.01,70.0,70.0,70.0,0.0,0.0,-360.0,360.0
9,0.0,9.261173333750804,3.165047453698997,-9.229809935087115,-4.022805904601833,0.03,0.08,0.01,130.0,130.0,130.0,0.0,0.0,-360.0,360.0
10,0.0,24.663134979695165,24.43006578918063,-24.535886744509554,-23.921072848438172,0.01,0.04,0.0,32.0,32.0,32.0,0.0,0.0,-360.0,360.0
11,0.0,6.463329936480361,-3.39554571695962,-6.4633299364803625,3.5137440480305218,0.0,0.21,0.0,65.0,65.0,65.0,0.0,0.0,-360.0,360.0
12,0.0,3.693331392274493,-1.9403118382626463,-3.693331392274493,2.0432328340250643,0.0,0.56,0.0,32.0,32.0,32.0,0.0,0.0,-360.0,360.0
13,0.0,0.0,0.0,0.0,0.0,0.0,0.21,0.0,65.0,65.0,65.0,0.0,0.0,-360.0,360.0
14,0.0,6.463329936480367,-3.5137440480305226,-6.463329936480367,3.5756574595438524,0.0,0.11,0.0,65.0,65.0,65.0,0.0,0.0,-360.0,360.0
15,0.0,-1.9731373188738945,-1.9734348896598801,1.9731373188738945,1.9945141202060839,0.0,0.26,0.0,65.0,65.0,65.0,0.0,0.0,-360.0,360.0
16,0.0,-37.000000000000014,-9.347826555731881,37.000000000000014,11.447902826507091,0.0,0.14,0.0,65.0,65.0,65.0,0.0,0.0,-360.0,360.0
17,0.0,5.2271417724537175,0.9789006141456187,-5.192186577132301,-0.9031643576158823,0.12,0.26,0.0,32.0,32.0,32.0,0.0,0.0,-360.0,360.0
18,0.0,8.801112118341281,-0.7636151457731469,-8.744844050806513,0.8681129854805733,0.07,0.13,0.0,32.0,32.0,32.0,0.0,0.0,-360.0,360.0
19,0.0,9.798608790331155,-0.3619730328466829,-9.709484645255555,0.5600266885702356,0.09,0.2,0.0,32.0,32.0,32.0,0.0,0.0,-360.0,360.0
20,0.0,-1.0078134228676994,-0.6968356423841077,1.011277319919978,0.699984639704361,0.22,0.2,0.0,16.0,16.0,16.0,0.0,0.0,-360.0,360.0
21,0.0,6.209484645255582,-2.3600266885705814,-6.172525945914482,2.44780359950569,0.08,0.19,0.0,16.0,16.0,16.0,0.0,0.0,-360.0,360.0
22,0.0,9.69380525775021,0.5089486634192604,-9.585916140703734,-0.29317042932630616,0.11,0.22,0.0,16.0,16.0,16.0,0.0,0.0,-360.0,360.0
23,0.0,6.385916140703722,-0.606829570673663,-6.359588410338099,0.6638729864658452,0.06,0.13,0.0,16.0,16.0,16.0,0.0,0.0,-360.0,360.0
24,0.0,-3.1404115896620644,-4.063872986465929,3.148904331802033,4.083689384792521,0.03,0.07,0.0,32.0,32.0,32.0,0.0,0.0,-360.0,360.0
25,0.0,5.398241792609718,4.8988101266773265,-5.348904331801975,-4.783689384792595,0.09,0.21,0.0,32.0,32.0,32.0,0.0,0.0,-360.0,360.0
26,0.0,2.851369920816604,8.311525910788816,-2.8274740540854175,-8.24780359950565,0.03,0.08,0.0,32.0,32.0,32.0,0.0,0.0,-360.0,360.0
27,0.0,-0.9178799969196318,-12.082378006484294,0.9633205175088588,12.188405887859156,0.03,0.07,0.0,32.0,32.0,32.0,0.0,0.0,-360.0,360.0
28,0.0,-2.9750703877519262,-8.74684832455129,3.036710342093179,8.878933940996832,0.07,0.15,0.0,32.0,32.0,32.0,0.0,0.0,-360.0,360.0
29,0.0,-18.46332051750867,-23.388405887860213,18.55328965790691,23.5683441686567,0.01,0.02,0.0,32.0,32.0,32.0,0.0,0.0,-360.0,360.0
30,0.0,-10.160238526863752,-4.577046288604316,10.289494861816317,4.835558958509447,0.1,0.2,0.0,16.0,16.0,16.0,0.0,0.0,-360.0,360.0
31,8.07606706204184,-2.09757039295988,7.79891387548134,2.1758378239886,-7.68151272893826,0.12,0.18,0.0,16.0,16.0,16.0,0.0,0.0,-360.0,360.0
32,0.0,5.710505138184451,5.962936032410655,-5.621888720606645,-5.778886549749053,0.13,0.27,0.0,16.0,16.0,16.0,0.0,0.0,-360.0,360.0
33,0.0,-3.0781112793935774,-0.8829708515684611,3.0985434189570205,0.9184582518628627,0.19,0.33,0.0,16.0,16.0,16.0,0.0,0.0,-360.0,360.0
34,0.0,3.5468544197269294,2.371218717984946,-3.4999999999999893,-2.2999999999999976,0.25,0.38,0.0,16.0,16.0,16.0,0.0,0.0,-360.0,360.0
35,0.0,-6.64539783868351,-3.2896769698477963,6.707670072093813,3.408560324540191,0.11,0.21,0.0,16.0,16.0,16.0,0.0,0.0,-360.0,360.0
36,0.0,-6.906052974121733,-6.043608598328938,6.906052974121733,6.398126984704031,0.0,0.4,0.0,65.0,65.0,65.0,0.0,0.0,-360.0,360.0
37,0.0,6.173882003297169,1.6840278133304223,-6.083785912230414,-1.512026184930252,0.22,0.42,0.0,16.0,16.0,16.0,0.0,0.0,-360.0,360.0
38,0.0,7.12239495048725,1.6745629326654725,-6.951090403779463,-1.3533669075883719,0.32,0.6,0.0,16.0,16.0,16.0,0.0,0.0,-360.0,360.0
39,0.0,3.6837859122304333,0.6120261849302276,-3.64890959622054,-0.5466330924116766,0.24,0.45,0.0,16.0,16.0,16.0,0.0,0.0,-360.0,360.0
40,0.0,-5.464113255490567,-6.078927151562633,5.500812385634925,4.328239655410666,0.06,0.2,0.02,32.0,32.0,32.0,0.0,0.0,-360.0,360.0
41,0.0,-1.4038150586846203,-2.6597314973088233,1.405240588486719,1.7153689429181458,0.02,0.06,0.01,32.0,32.0,32.0,0.0,0.0,-360.0,360.0
